---- qbsp / ericw-tools v0.18.1 ----
Input file: Underground.map
Output file: Underground.bsp

---- LoadMapFile ----
*** WARNING 06: No info_player_deathmatch entities in level
          488 faces
           80 brushes
            8 entities
           11 unique texnames
          187 texinfo

Opened WAD: C:/Users/lilzk/OneDrive/Desktop/quake-leveldesign-starterkit-master/wads/START.WAD
Processing hull 0...
---- Brush_LoadEntity ----
           80 brushes
          124 planes
---- CSGFaces ----
          488 brushfaces
          663 csgfaces
          572 mergedfaces
---- SolidBSP ----
         1016 split nodes
          421 solid leafs
          566 empty leafs
           30 water leafs
            0 detail leafs
            0 detail illusionary leafs
            0 detail fence leafs
            0 illusionary visblocker leafs
         2441 leaffaces
         2333 nodefaces
---- Portalize ----
          596 vis leafs
          596 vis clusters
         1645 vis portals
---- FillOutside ----
*** WARNING 10: Reached occupant at (-800 -816 -296), no filling performed.
Leak file written to Underground.pts
---- MakeFaceEdges ----
---- GrowRegions ----
Processing hull 1...
Processing hull 2...
---- WriteBSPFile ----
Wrote Underground.bsp
          286 planes             5720
         3002 vertexes          36024
         1016 nodes             24384
          169 texinfo            6760
         2333 faces             46660
         1092 clipnodes          8736
          597 leafs             16716
         2441 marksurfaces       4882
         9295 surfedges         37180
         6189 edges             24756
           11 textures          65256
              lightdata             0
              visdata               0
              entdata             519

0.410 seconds elapsed
Peak memory usage: 9884546 (9.4M)
