---- qbsp / ericw-tools v0.18.1 ----
Input file: Underground.map
Output file: Underground.bsp

---- LoadMapFile ----
*** WARNING 06: No info_player_deathmatch entities in level
          488 faces
           80 brushes
           15 entities
           11 unique texnames
          185 texinfo

Opened WAD: C:/Users/lilzk/OneDrive/Desktop/quake-leveldesign-starterkit-master/wads/START.WAD
Processing hull 0...
---- Brush_LoadEntity ----
           80 brushes
          122 planes
---- CSGFaces ----
          488 brushfaces
          673 csgfaces
          576 mergedfaces
---- SolidBSP ----
          965 split nodes
          401 solid leafs
          535 empty leafs
           30 water leafs
            0 detail leafs
            0 detail illusionary leafs
            0 detail fence leafs
            0 illusionary visblocker leafs
         2490 leaffaces
         2365 nodefaces
---- Portalize ----
          565 vis leafs
          565 vis clusters
         1523 vis portals
---- FillOutside ----
*** WARNING 10: Reached occupant at (-800 -816 -296), no filling performed.
Leak file written to Underground.pts
---- MakeFaceEdges ----
---- GrowRegions ----
Processing hull 1...
Processing hull 2...
---- WriteBSPFile ----
Wrote Underground.bsp
          285 planes             5700
         3040 vertexes          36480
          965 nodes             23160
          166 texinfo            6640
         2365 faces             47300
         1104 clipnodes          8832
          566 leafs             15848
         2490 marksurfaces       4980
         9425 surfedges         37700
         6265 edges             25060
           11 textures          65256
              lightdata             0
              visdata               0
              entdata             935

0.219 seconds elapsed
Peak memory usage: 9820380 (9.4M)
